
##########################################################################
#               Crystallographic Information Format file
#               Produced by PyCifRW module
#
#  This is a CIF file.  CIF has been adopted by the International
#  Union of Crystallography as the standard for data archiving and
#  transmission.
#
#  For information on this file format, follow the CIF links at
#  http://www.iucr.org
##########################################################################

data_str_m24_o19_o19_sra

_audit_creation_date                    2015-02-13T09:24:26-0500
_audit_creation_method                  'faps 1.5.0.0'
_symmetry_space_group_name_H-M          P1
_symmetry_Int_Tables_number             1
_space_group_crystal_system             triclinic
loop_
  _symmetry_equiv_pos_as_xyz
         'x,y,z' 
_cell_length_a                          12.5696839
_cell_length_b                          7.19118042
_cell_length_c                          3.8250001
_cell_angle_alpha                       89.9999405
_cell_angle_beta                        90.0040393
_cell_angle_gamma                       74.2820592
_cell_volume                            332.816609174
loop_
  _atom_site_label
  _atom_site_type_symbol
  _atom_site_description
  _atom_site_fract_x
  _atom_site_fract_y
  _atom_site_fract_z
  _atom_type_partial_charge
         C1        C         C_1       0.841701  0.083863  0.999890  -0.192041           
         C2        C         C_1       0.941287  0.031494  0.999893  0.073658  
         C3        C         C_1       0.057976  0.968871  0.999895  0.081415  
         C4        C         C_1       0.157562  0.916499  0.999897  -0.193987           
         F1        F         F_        0.502664  0.514095  0.500937  -0.420649           
         V1        V         V_3+5     0.499683  0.500199  0.999888  1.286988  
         O1        O         O_3       0.428606  0.283785  0.968460  -0.502571           
         O2        O         O_R       0.330309  0.673842  0.999866  -0.516898           
         F2        F         F_        0.502607  0.983431  0.500932  -0.417938           
         V2        V         V_3+5     0.499674  0.000172  0.999880  1.277735  
         C5        C         C_R       0.723039  0.142703  0.999886  0.795928  
         O3        O         O_3       0.570692  0.716545  0.031304  -0.438979           
         C6        C         C_R       0.276224  0.857656  0.999896  0.761813  
         O4        O         O_R       0.668953  0.326515  0.999916  -0.543790           
         O5        O         O_R       0.331262  0.988500  0.999919  -0.511740           
         O6        O         O_R       0.668004  0.011857  0.999855  -0.538944 
loop_
  _geom_bond_atom_site_label_1
  _geom_bond_atom_site_label_2
  _geom_bond_distance
  _geom_bond_site_symmetry_2
  _ccdc_geom_bond_type
         C1        C5        1.436     .         S         
         C2        C3        1.413     1_645     S         
         C3        C2        1.413     1_465     S         
         C4        C6        1.436     .         S         
         F1        V1        1.912     .         S         
         V1        O1        1.997     .         S         
         V1        O2        2.157     .         S         
         V1        O3        1.996     1_556     S         
         V1        O4        2.156     .         S         
         O1        V2        1.996     .         S         
         F2        V2        1.912     1_565     S         
         V2        F2        1.912     1_545     S         
         V2        O3        1.996     1_546     S         
         V2        O5        2.141     1_545     S         
         V2        O6        2.140     .         S         
         O3        V1        1.996     1_554     S         
         O3        V2        1.996     1_564     S         
         O5        V2        2.141     1_565     S         
         O2        C6        1.312     .         A         
         C5        O4        1.312     .         A         
         C5        O6        1.310     .         A         
         C6        O5        1.310     .         A         
         C1        C2        1.206     .         T         
         C3        C4        1.206     .         T 