data_DB0-m2_o59_nox
_audit_creation_date              2022-04-21
_audit_creation_method            SimpleCIF
_cell_length_a                    40.3611576
_cell_length_b                    40.3861851
_cell_length_c                    39.6950004
_cell_angle_alpha                 119.490217
_cell_angle_beta                  119.412630
_cell_angle_gamma                 76.0482941
_cell_volume                      49061.5892708498
_symmetry_space_group_name_H-M    P1
loop_
    _symmetry_equiv_pos_as_xyz
    x,y,z
loop_
    _atom_site_label
    _atom_site_type_symbol
    _atom_site_fract_x
    _atom_site_fract_y
    _atom_site_fract_z
    _atom_type_partial_charge
    C1    C   0.0588440  0.3943950  0.4094860  -0.050089
    C2    C   0.0824440  0.3637160  0.4005330  -0.171883
    C3    C   0.0857480  0.3354230  0.4120960  0.088033 
    C4    C   0.0622540  0.3365720  0.4289140  -0.177152
    C5    C   0.0378910  0.3667370  0.4367450  -0.067511
    C6    C   0.0373440  0.3965950  0.4288530  -0.076273
    H1    H   0.0993600  0.3630960  0.3859650  0.122039 
    H2    H   0.0645880  0.3156660  0.4394160  0.142924 
    H3    H   0.0584150  0.4171880  0.4024250  0.097389 
    H4    H   0.0217720  0.3680180  0.4524800  0.127486 
    C7    C   0.8975120  0.4658910  0.5158950  -0.069654
    C8    C   0.8708610  0.4660750  0.5281040  -0.072991
    C9    C   0.8577080  0.5000880  0.5514600  -0.070878
    C10   C   0.8715670  0.5339480  0.5626390  -0.103992
    C11   C   0.8982570  0.5338020  0.5504750  -0.030993
    C12   C   0.9113340  0.4997580  0.5269440  -0.065998
    H5    H   0.8604120  0.4392260  0.5189320  0.115838 
    H6    H   0.8616690  0.5609100  0.5808660  0.118143 
    H7    H   0.9071820  0.4388290  0.4975570  0.132367 
    H8    H   0.9085240  0.5607170  0.5595880  0.114682 
    C13   C   0.0590720  0.6018160  0.5117820  -0.129638
    C14   C   0.0816590  0.6327340  0.5311580  -0.122317
    C15   C   0.0868290  0.6611480  0.5715170  0.099502 
    C16   C   0.0674780  0.6595570  0.5912660  -0.196571
    C17   C   0.0438200  0.6292650  0.5712420  -0.029896
    C18   C   0.0404860  0.5996900  0.5320150  -0.059969
    H9    H   0.0972620  0.6332240  0.5157400  0.130335 
    H10   H   0.0713900  0.6816160  0.6229220  0.106945 
    H11   H   0.0568570  0.5789570  0.4811280  0.128401 
    H12   H   0.0299950  0.6278990  0.5879350  0.124503 
    N1    N   0.9919610  0.4326240  0.4577900  -0.872582
    C19   C   0.9781570  0.4658980  0.4788830  1.150247 
    N2    N   0.9521940  0.4662570  0.4909230  -0.866705
    C20   C   0.0182840  0.4321630  0.4461210  0.807091 
    N3    N   0.0308190  0.4651630  0.4558120  -0.806456
    C21   C   0.0174450  0.4984500  0.4774840  1.057816 
    N4    N   0.9914830  0.4988210  0.4895210  -0.744521
    C22   C   0.9796330  0.5320800  0.5132180  1.130842 
    N5    N   0.9536420  0.5324060  0.5252370  -0.831540
    C23   C   0.9395930  0.4994940  0.5137900  0.745295 
    N6    N   0.0320470  0.5313240  0.4897840  -0.838998
    C24   C   0.0209240  0.5646230  0.5143600  0.793807 
    N7    N   0.9947640  0.5649390  0.5261900  -0.863577
    C25   C   0.2423880  0.1209250  0.7370810  -0.042067
    C26   C   0.2425790  0.0942820  0.6983990  -0.144041
    C27   C   0.2765930  0.0811430  0.6959090  0.002186 
    C28   C   0.3104430  0.0950070  0.7324610  -0.130209
    C29   C   0.3102890  0.1216890  0.7711760  -0.080357
    C30   C   0.2762460  0.1347520  0.7737330  -0.027046
    H13   H   0.2157380  0.0838270  0.6702620  0.131860 
    H14   H   0.3374050  0.0851200  0.7313040  0.128081 
    H15   H   0.2153270  0.1305850  0.7380230  0.104830 
    H16   H   0.3371970  0.1319610  0.7992530  0.126991 
    C31   C   0.4057290  0.2672450  0.9914410  -0.083139
    C32   C   0.4360210  0.2909080  0.0253600  -0.168729
    C33   C   0.4376180  0.3102850  0.0660590  0.092853 
    C34   C   0.4092110  0.3051370  0.0728500  -0.113827
    C35   C   0.3782940  0.2825430  0.0387260  -0.120885
    C36   C   0.3761630  0.2639310  0.9977730  -0.051639
    H17   H   0.4580740  0.2948040  0.0196650  0.112862 
    H18   H   0.4097090  0.3207600  0.1043680  0.118340 
    H19   H   0.4043600  0.2533990  0.9595510  0.138326 
    H20   H   0.3554420  0.2803440  0.0443170  0.114729 
    C37   C   0.1432410  0.2613120  0.8574870  -0.073349
    C38   C   0.1130850  0.2856850  0.8595170  -0.174799
    C39   C   0.1119430  0.3091970  0.8986860  0.075987 
    C40   C   0.1402320  0.3058990  0.9352440  -0.134893
    C41   C   0.1709020  0.2822890  0.9333700  -0.088380
    C42   C   0.1730970  0.2607720  0.8946950  -0.024091
    H21   H   0.0921810  0.2880140  0.8304370  0.130240 
    H22   H   0.1396160  0.3228300  0.9661140  0.108724 
    H23   H   0.1445190  0.2451790  0.8269080  0.133385 
    H24   H   0.1936940  0.2818650  0.9628000  0.110962 
    N8    N   0.3088850  0.1770610  0.8504100  -0.811629
    C43   C   0.3085600  0.2030530  0.8881000  1.119493 
    N9    N   0.3414130  0.2181910  0.9231210  -0.873027
    C44   C   0.2759780  0.1630080  0.8148890  0.708745 
    N10   N   0.2427450  0.1756060  0.8171200  -0.786630
    C45   C   0.2423870  0.2015720  0.8547720  1.098841 
    N11   N   0.2753060  0.2149030  0.8903880  -0.744104
    C46   C   0.2749370  0.2408720  0.9280240  1.018908 
    N12   N   0.3078070  0.2554830  0.9632030  -0.780235
    C47   C   0.3411000  0.2443580  0.9608000  0.795065 
    N13   N   0.2091190  0.2153770  0.8563970  -0.846514
    C48   C   0.2086590  0.2417070  0.8939350  0.730632 
    N14   N   0.2416560  0.2542470  0.9297840  -0.778222
    O1    O   0.7378670  0.5328120  0.5462080  -0.613061
    O2    O   0.7376970  0.4679450  0.5136490  -0.606101
    C49   C   0.7247820  0.5004000  0.5118090  0.685245 
    O3    O   0.8159690  0.5326710  0.5851340  -0.643735
    O4    O   0.8158000  0.4678030  0.5526080  -0.642893
    C50   C   0.8288890  0.5002020  0.5637130  0.741685 
    Cu1   Cu  0.7769090  0.5377220  0.6027620  1.034996 
    Cu2   Cu  0.7767430  0.4629340  0.5652570  1.033974 
    O5    O   0.8156480  0.5326400  0.6543560  -0.603132
    O6    O   0.8155340  0.4677660  0.6219100  -0.613677
    O7    O   0.7381030  0.5329240  0.6158340  -0.642991
    O8    O   0.7379900  0.4680500  0.5832470  -0.639205
    C51   C   0.8284000  0.5002130  0.6563260  0.687321 
    C52   C   0.7252330  0.5004910  0.6049320  0.736229 
    C53   C   0.3113860  0.1183880  0.5461200  -0.023682
    C54   C   0.3110040  0.0927970  0.5593350  -0.105850
    C55   C   0.2769130  0.0798420  0.5486980  -0.065887
    C56   C   0.2431380  0.0927710  0.5247170  -0.074942
    C57   C   0.2434820  0.1184150  0.5114550  -0.060833
    C58   C   0.2776410  0.1313280  0.5220480  -0.086233
    H25   H   0.3377910  0.0830320  0.5779530  0.118039 
    H26   H   0.2161210  0.0829220  0.5159080  0.115019 
    H27   H   0.3385560  0.1279460  0.5549890  0.113514 
    H28   H   0.2166790  0.1280880  0.4927490  0.130055 
    C59   C   0.1452790  0.2491420  0.4155250  -0.004680
    C60   C   0.1137100  0.2720140  0.4071840  -0.203469
    C61   C   0.1171080  0.3076760  0.4122170  0.119006 
    C62   C   0.1520730  0.3187660  0.4225870  -0.186713
    C63   C   0.1833680  0.2956650  0.4300770  -0.042389
    C64   C   0.1804980  0.2613620  0.4282170  -0.124091
    H29   H   0.0866480  0.2620090  0.3980230  0.118463 
    H30   H   0.1563670  0.3467390  0.4281920  0.139129 
    H31   H   0.1421680  0.2222370  0.4133690  0.096574 
    H32   H   0.2104980  0.3062940  0.4403070  0.120989 
    C65   C   0.4125780  0.2591230  0.5690570  -0.024708
    C66   C   0.4434990  0.2822120  0.5899150  -0.202062
    C67   C   0.4461000  0.3020130  0.5712160  0.101529 
    C68   C   0.4182310  0.2977020  0.5309750  -0.125501
    C69   C   0.3867050  0.2757030  0.5107900  -0.128647
    C70   C   0.3834460  0.2568910  0.5301160  -0.053327
    H33   H   0.4651090  0.2855520  0.6215220  0.106703 
    H34   H   0.4195050  0.3137420  0.5164460  0.133577 
    H35   H   0.4102860  0.2450870  0.5850150  0.125147 
    H36   H   0.3641800  0.2743040  0.4803590  0.121992 
    N15   N   0.2457290  0.1723770  0.4858810  -0.863121
    C71   C   0.2467160  0.1985040  0.4747090  1.071781 
    N16   N   0.2141370  0.2134930  0.4540970  -0.795654
    C72   C   0.2783570  0.1589240  0.5085840  0.765048 
    N17   N   0.3118780  0.1719780  0.5203540  -0.830086
    C73   C   0.3129190  0.1980070  0.5092030  1.119876 
    N18   N   0.2803470  0.2111260  0.4861970  -0.712455
    C74   C   0.2814050  0.2377290  0.4758140  1.082345 
    N19   N   0.2489170  0.2527100  0.4553510  -0.853369
    C75   C   0.2151880  0.2407860  0.4445080  0.800384 
    N20   N   0.3464920  0.2120670  0.5226200  -0.863313
    C76   C   0.3475750  0.2385530  0.5120180  0.773633 
    N21   N   0.3149620  0.2513070  0.4885560  -0.823539
    C77   C   0.1477500  0.7332090  0.5950980  -0.022616
    C78   C   0.1175090  0.7094770  0.5750440  -0.201826
    C79   C   0.1158500  0.6902420  0.5948480  0.104154 
    C80   C   0.1441380  0.6956040  0.6352860  -0.124234
    C81   C   0.1750100  0.7182640  0.6546950  -0.125265
    C82   C   0.1772090  0.7367320  0.6344120  -0.068836
    H37   H   0.0955480  0.7054140  0.5433270  0.107854 
    H38   H   0.1435960  0.6800950  0.6507510  0.130409 
    H39   H   0.1491830  0.7469390  0.5783680  0.122923 
    H40   H   0.1977800  0.7206250  0.6854160  0.127012 
    C83   C   0.3823620  0.7187250  0.7572570  -0.049398
    C84   C   0.4130180  0.6951310  0.7662240  -0.172270
    C85   C   0.4413740  0.6917770  0.7546900  0.089079 
    C86   C   0.4403100  0.7152220  0.7378890  -0.178762
    C87   C   0.4101650  0.7395790  0.7300390  -0.065511
    C88   C   0.3802450  0.7401690  0.7378970  -0.080377
    H41   H   0.4135710  0.6782530  0.7807760  0.122440 
    H42   H   0.4612720  0.7128470  0.7274110  0.143559 
    H43   H   0.3595180  0.7191880  0.7642900  0.097430 
    H44   H   0.4089470  0.7556520  0.7143100  0.127425 
    C89   C   0.2432580  0.8788660  0.6160520  -0.037483
    C90   C   0.2431510  0.9055300  0.6039090  -0.097722
    C91   C   0.2770250  0.9194060  0.6151240  -0.073421
    C92   C   0.3110130  0.9062910  0.6384910  -0.067624
    C93   C   0.3111580  0.8796690  0.6506810  -0.073852
    C94   C   0.2772770  0.8658340  0.6396010  -0.063605
    H45   H   0.2162080  0.9153980  0.5856740  0.116495 
    H46   H   0.3378720  0.9167550  0.6476920  0.114657 
    H47   H   0.2163330  0.8685900  0.6069150  0.116620 
    H48   H   0.3382010  0.8700330  0.6690330  0.132744 
    N22   N   0.2455300  0.7453080  0.6767610  -0.837486
    C95   C   0.2784130  0.7599350  0.6891070  1.051412 
    N23   N   0.3116740  0.7466340  0.7108410  -0.804223
    C96   C   0.2122630  0.7563430  0.6521150  0.797992 
    N24   N   0.2119860  0.7824440  0.6402620  -0.864250
    C97   C   0.2448540  0.7976060  0.6532850  1.129333 
    N25   N   0.2780840  0.7858370  0.6770490  -0.736938
    C98   C   0.3110240  0.7991810  0.6877330  1.142953 
    N26   N   0.3442770  0.7854470  0.7088880  -0.870036
    C99   C   0.3446940  0.7591800  0.7205760  0.808638 
    N27   N   0.2445700  0.8235440  0.6412550  -0.832690
    C100  C   0.2774960  0.8376190  0.6527530  0.747477 
    N28   N   0.3107080  0.8250920  0.6756800  -0.865550
    C101  C   0.5181000  0.3647490  0.5980210  -0.023323
    C102  C   0.4951030  0.3337650  0.5771920  -0.206665
    C103  C   0.4752000  0.3312100  0.5958370  0.106200 
    C104  C   0.4793120  0.3591960  0.6359960  -0.127608
    C105  C   0.5012210  0.3907800  0.6561490  -0.127171
    C106  C   0.5201400  0.3939850  0.6368750  -0.051779
    H49   H   0.4919190  0.3120620  0.5456480  0.108317 
    H50   H   0.4631880  0.3579550  0.6504780  0.133645 
    H51   H   0.5322250  0.3669900  0.5821020  0.124956 
    H52   H   0.5024710  0.4133840  0.6865130  0.121997 
    C107  C   0.4810730  0.5941510  0.7366880  -0.041090
    C108  C   0.4579690  0.6254590  0.7441680  -0.185201
    C109  C   0.4691040  0.6604090  0.7545760  0.116209 
    C110  C   0.5048080  0.6637810  0.7596550  -0.200181
    C111  C   0.5276850  0.6321990  0.7513270  -0.006106
    C112  C   0.5154270  0.5969930  0.7385990  -0.126587
    H53   H   0.4299640  0.6211880  0.7385270  0.138506 
    H54   H   0.5148440  0.6908310  0.7688440  0.117642 
    H55   H   0.4704170  0.5670290  0.7264250  0.120716 
    H56   H   0.5546300  0.6352900  0.7535240  0.096951 
    C113  C   0.6587100  0.4659420  0.6207950  -0.022338
    C114  C   0.6843180  0.4662930  0.6075520  -0.105332
    C115  C   0.6972510  0.5003750  0.6181600  -0.066104
    C116  C   0.6842870  0.5341710  0.6421420  -0.072550
    C117  C   0.6586230  0.5338580  0.6554300  -0.062546
    C118  C   0.6457290  0.4997090  0.6448620  -0.087992
    H57   H   0.6941120  0.4394910  0.5889340  0.117091 
    H58   H   0.6941190  0.5611810  0.6509270  0.114908 
    H59   H   0.6491650  0.4387790  0.6119450  0.113409 
    H60   H   0.6489180  0.5606770  0.6741320  0.130077 
    N29   N   0.5255940  0.4625100  0.6783500  -0.823340
    C119  C   0.5391520  0.4960630  0.6910680  1.083331 
    N30   N   0.5241140  0.5285690  0.7114980  -0.855105
    C120  C   0.5384240  0.4298740  0.6549350  0.769688 
    N31   N   0.5649600  0.4309320  0.6443530  -0.861590
    C121  C   0.5789930  0.4645010  0.6577390  1.118149 
    N32   N   0.5658070  0.4970940  0.6807050  -0.710177
    C122  C   0.5784170  0.5307140  0.6921720  1.069025 
    N33   N   0.5633760  0.5633100  0.7127560  -0.795860
    C123  C   0.5360350  0.5622880  0.7223280  0.803639 
    N34   N   0.6050660  0.4655130  0.6465950  -0.831162
    C124  C   0.6180990  0.4990250  0.6583370  0.767830 
    N35   N   0.6045870  0.5316730  0.6810090  -0.862406
    C125  C   0.4953350  0.6058450  0.2334000  -0.084589
    C126  C   0.4717540  0.6365110  0.2314950  -0.139142
    C127  C   0.4683990  0.6648770  0.2680340  0.079056 
    C128  C   0.4918300  0.6638130  0.3072200  -0.177260
    C129  C   0.5161750  0.6336590  0.3092820  -0.071936
    C130  C   0.5167650  0.6037290  0.2720890  -0.025156
    H61   H   0.4548870  0.6370620  0.2006140  0.109491 
    H62   H   0.4894540  0.6847830  0.3362870  0.130644 
    H63   H   0.4957980  0.5829920  0.2039820  0.110110 
    H64   H   0.5322370  0.6324420  0.3398690  0.133386 
    C131  C   0.6562450  0.5346260  0.4297180  -0.040755
    C132  C   0.6828680  0.5344770  0.4683850  -0.145123
    C133  C   0.6959800  0.5004810  0.4708650  -0.000606
    C134  C   0.6821010  0.4666050  0.4343200  -0.127793
    C135  C   0.6554350  0.4667170  0.3956220  -0.081724
    C136  C   0.6424050  0.5007430  0.3930720  -0.025123
    H65   H   0.6933350  0.5613380  0.4965160  0.132178 
    H66   H   0.6919660  0.4396560  0.4354690  0.127062 
    H67   H   0.6466090  0.5616750  0.4287830  0.104921 
    H68   H   0.6451550  0.4397890  0.3675480  0.127567 
    C137  C   0.4947460  0.3984550  0.1281410  -0.123915
    C138  C   0.4720750  0.3675820  0.0940270  -0.108193
    C139  C   0.4667150  0.3393080  0.1008330  0.083376 
    C140  C   0.4859590  0.3409800  0.1415390  -0.164149
    C141  C   0.5097030  0.3712220  0.1754500  -0.085858
    C142  C   0.5132270  0.4006670  0.1691000  -0.050382
    H69   H   0.4565580  0.3670290  0.0625040  0.117160 
    H70   H   0.4818970  0.3190300  0.1472470  0.112016 
    H71   H   0.4971080  0.4212150  0.1225390  0.115249 
    H72   H   0.5234420  0.3726650  0.2073490  0.138985 
    N36   N   0.5620310  0.5677540  0.3104060  -0.847207
    C143  C   0.5757520  0.5344970  0.3120400  1.105428 
    N37   N   0.6016690  0.5341810  0.3496870  -0.789220
    C144  C   0.5357590  0.5681700  0.2728670  0.728784 
    N38   N   0.5231940  0.5351440  0.2370330  -0.778358
    C145  C   0.5364810  0.5018780  0.2388040  1.023232 
    N39   N   0.5623900  0.5015510  0.2764370  -0.753996
    C146  C   0.5741460  0.4683170  0.2787370  1.128087 
    N40   N   0.6000910  0.4680350  0.3164220  -0.813183
    C147  C   0.6141840  0.5009650  0.3519260  0.706734 
    N41   N   0.5218350  0.4689910  0.2036410  -0.782167
    C148  C   0.5328570  0.4357220  0.2060560  0.798317 
    N42   N   0.5589660  0.4354470  0.2437320  -0.877242
    C149  C   0.8949620  0.4669350  0.7400180  -0.030099
    C150  C   0.8693070  0.4665870  0.7007670  -0.147681
    C151  C   0.8563740  0.5003640  0.6976350  0.000623 
    C152  C   0.8693330  0.5344630  0.7340490  -0.136146
    C153  C   0.8949350  0.5348490  0.7732370  -0.061517
    C154  C   0.9078820  0.5011010  0.7764990  -0.058874
    H73   H   0.8594540  0.4395640  0.6727040  0.131565 
    H74   H   0.8595660  0.5612510  0.7324560  0.128662 
    H75   H   0.9046400  0.4401300  0.7415920  0.104050 
    H76   H   0.9044970  0.5620250  0.8010990  0.121513 
    C155  C   0.0358040  0.6360660  0.9921550  -0.094071
    C156  C   0.0589020  0.6669910  0.0252910  -0.168131
    C157  C   0.0787040  0.6696210  0.0664070  0.086595 
    C158  C   0.0743920  0.6417780  0.0744990  -0.105229
    C159  C   0.0523860  0.6102460  0.0411750  -0.132568
    C160  C   0.0335670  0.6069600  0.9997650  -0.028703
    H77   H   0.0622440  0.6885820  0.0186110  0.112083 
    H78   H   0.0904350  0.6430750  0.1063560  0.118772 
    H79   H   0.0217630  0.6337500  0.9598570  0.145536 
    H80   H   0.0509830  0.5877400  0.0477060  0.112889 
    C161  C   0.0256940  0.3687550  0.8685050  -0.013602
    C162  C   0.0485510  0.3371760  0.8681520  -0.212529
    C163  C   0.0842110  0.3405720  0.9021810  0.134394 
    C164  C   0.0953130  0.3755470  0.9378640  -0.196745
    C165  C   0.0722280  0.4068520  0.9385630  -0.023750
    C166  C   0.0379270  0.4039830  0.9032500  -0.084226
    H81   H   0.0385380  0.3101070  0.8402470  0.123392 
    H82   H   0.1232850  0.3798380  0.9645250  0.126788 
    H83   H   0.9987910  0.3656430  0.8406430  0.098821 
    H84   H   0.0828660  0.4339880  0.9660910  0.115116 
    N43   N   0.9485760  0.5353560  0.8530730  -0.814968
    C167  C   0.9746220  0.5364080  0.8912950  1.119444 
    N44   N   0.9887060  0.5699890  0.9255000  -0.878405
    C168  C   0.9354960  0.5018270  0.8182780  0.742690 
    N45   N   0.9489400  0.4692000  0.8218140  -0.789525
    C169  C   0.9750830  0.4701980  0.8601010  1.017415 
    N46   N   0.9877310  0.5038380  0.8948600  -0.714710
    C170  C   0.0143490  0.5049070  0.9329040  1.038478 
    N47   N   0.0279520  0.5384730  0.9672860  -0.768515
    C171  C   0.0152080  0.5710830  0.9636700  0.771044 
    N48   N   0.9900610  0.4376170  0.8631320  -0.763149
    C172  C   0.0173680  0.4386790  0.9010670  0.718221 
    N49   N   0.0293170  0.4724190  0.9358690  -0.814471
    O9    O   0.3091890  0.0394260  0.6530870  -0.605692
    O10   O   0.2443310  0.0392330  0.6205490  -0.612677
    C173  C   0.2767190  0.0523310  0.6549460  0.682922 
    O11   O   0.3091840  0.0391230  0.5835390  -0.639989
    O12   O   0.2443220  0.0389860  0.5509610  -0.641907
    C174  C   0.2767640  0.0518680  0.5618820  0.737763 
    Cu3   Cu  0.3142660  0.0003670  0.6014560  1.033086 
    Cu4   Cu  0.2394810  0.0001850  0.5639660  1.033251 
    O13   O   0.3094880  0.9615720  0.5447730  -0.613218
    O14   O   0.2446240  0.9614370  0.5123420  -0.602514
    O15   O   0.3093580  0.9613110  0.6140370  -0.641013
    O16   O   0.2445010  0.9611220  0.5815180  -0.641457
    C175  C   0.2770680  0.9486950  0.5103560  0.685635 
    C176  C   0.2769480  0.9482130  0.6029110  0.737999 
    C177  C   0.2425650  0.8822120  0.3933910  -0.057879
    C178  C   0.2429000  0.9078000  0.4325980  -0.139319
    C179  C   0.2769690  0.9207290  0.4690260  0.004757 
    C180  C   0.3107680  0.9077800  0.4658900  -0.152920
    C181  C   0.3104710  0.8821360  0.4266210  -0.025819
    C182  C   0.2763340  0.8692470  0.3901250  -0.063098
    H85   H   0.2160950  0.9175820  0.4341940  0.129017 
    H86   H   0.3377680  0.9176100  0.4939640  0.132946 
    H87   H   0.2154110  0.8726710  0.3655180  0.121002 
    H88   H   0.3372920  0.8724420  0.4250450  0.103299 
    C183  C   0.4088380  0.7512140  0.2981290  -0.014171
    C184  C   0.4404130  0.7283270  0.2985110  -0.214018
    C185  C   0.4370410  0.6926170  0.2645060  0.135650 
    C186  C   0.4021000  0.6814860  0.2288150  -0.198738
    C187  C   0.3708000  0.7046000  0.2280860  -0.022376
    C188  C   0.3736400  0.7389600  0.2633770  -0.083307
    H89   H   0.4674570  0.7383610  0.3264200  0.123910 
    H90   H   0.3978280  0.6534770  0.2021720  0.127433 
    H91   H   0.4119270  0.7781630  0.3259730  0.099041 
    H92   H   0.3436840  0.6939460  0.2005580  0.114444 
    C189  C   0.1414230  0.7416750  0.1743250  -0.093494
    C190  C   0.1104440  0.7186710  0.1411750  -0.168993
    C191  C   0.1078960  0.6987310  0.1000720  0.088478 
    C192  C   0.1358840  0.7028140  0.0920040  -0.108321
    C193  C   0.1674630  0.7247320  0.1253430  -0.130361
    C194  C   0.1706610  0.7436860  0.1667440  -0.028672
    H93   H   0.0887390  0.7155090  0.1478360  0.111925 
    H94   H   0.1346470  0.6866620  0.0601560  0.119360 
    H95   H   0.1436560  0.7558270  0.2066110  0.145536 
    H96   H   0.1900690  0.7259590  0.1188310  0.112682 
    N50   N   0.3083110  0.8281230  0.3448050  -0.789896
    C195  C   0.3073610  0.8019600  0.3065060  1.016279 
    N51   N   0.3399540  0.7869140  0.3034850  -0.762513
    C196  C   0.2756640  0.8416340  0.3483310  0.744490 
    N52   N   0.2421610  0.8286090  0.3135100  -0.815188
    C197  C   0.2411570  0.8025440  0.2752770  1.117631 
    N53   N   0.2737480  0.7893550  0.2717260  -0.712405
    C198  C   0.2727240  0.7627020  0.2336720  1.037590 
    N54   N   0.3052290  0.7476600  0.2307190  -0.814100
    C199  C   0.3389390  0.7595760  0.2655430  0.717498 
    N55   N   0.2075960  0.7885140  0.2410450  -0.876661
    C200  C   0.2065440  0.7619780  0.2028650  0.768792 
    N56   N   0.2391790  0.7491450  0.1992640  -0.768225
