
##########################################################################
#               Crystallographic Information Format file
#               Produced by PyCifRW module
#
#  This is a CIF file.  CIF has been adopted by the International
#  Union of Crystallography as the standard for data archiving and
#  transmission.
#
#  For information on this file format, follow the CIF links at
#  http://www.iucr.org
##########################################################################

data_str_m1_o2_o5_f0_pcu

_audit_creation_date                    2016-03-29T11:18:23-0400
_audit_creation_method                  'faps 1.7.0.0'
_symmetry_space_group_name_H-M          P1
_symmetry_Int_Tables_number             1
_space_group_crystal_system             orthorhombic
_net_charge                             0.0
loop_
  _symmetry_equiv_pos_as_xyz
         'x,y,z' 
_cell_length_a                          24.4920862
_cell_length_b                          24.4919797
_cell_length_c                          22.7390122
_cell_angle_alpha                       90.0
_cell_angle_beta                        90.0
_cell_angle_gamma                       90.0
_cell_volume                            13640.2166452
loop_
  _atom_site_label
  _atom_site_type_symbol
  _atom_site_description
  _atom_site_fract_x
  _atom_site_fract_y
  _atom_site_fract_z
  _atom_type_partial_charge
         Zn1       Zn        Zn3+2     0.066392  0.499185  0.299719  1.436680  
         Zn2       Zn        Zn3+2     0.933632  0.499285  0.700310  1.436784  
         Zn3       Zn        Zn3+2     0.501835  0.935949  0.300607  1.436445  
         Zn4       Zn        Zn3+2     0.497921  0.065995  0.701914  1.434648  
         Zn5       Zn        Zn3+2     0.935967  0.499356  0.298470  1.435158  
         Zn6       Zn        Zn3+2     0.064049  0.499548  0.701549  1.434122  
         Zn7       Zn        Zn3+2     0.502020  0.065993  0.298017  1.434019  
         Zn8       Zn        Zn3+2     0.498141  0.935943  0.699378  1.438026  
         Zn9       Zn        Zn3+2     0.563802  0.999234  0.798718  1.435180  
         Zn10      Zn        Zn3+2     0.436134  0.999272  0.201294  1.434753  
         Zn11      Zn        Zn3+2     0.997905  0.435834  0.800391  1.436193  
         Zn12      Zn        Zn3+2     0.001850  0.566155  0.202241  1.435664  
         Zn13      Zn        Zn3+2     0.433753  0.999468  0.799879  1.438649  
         Zn14      Zn        Zn3+2     0.566187  0.999397  0.200048  1.436946  
         Zn15      Zn        Zn3+2     0.998174  0.566242  0.797828  1.436059  
         Zn16      Zn        Zn3+2     0.002090  0.435736  0.199597  1.436725  
         C1        C         C_R       0.230245  0.271291  0.248596  0.083377  
         C2        C         C_R       0.768663  0.727691  0.747678  0.083161  
         C3        C         C_R       0.274355  0.770059  0.252022  0.085688  
         C4        C         C_R       0.727058  0.228650  0.751466  0.082765  
         C5        C         C_R       0.772705  0.728811  0.251612  0.076895  
         C6        C         C_R       0.225939  0.270444  0.752390  0.083380  
         C7        C         C_R       0.731668  0.227277  0.248022  0.081052  
         C8        C         C_R       0.269973  0.771536  0.748665  0.085084  
         C9        C         C_R       0.769766  0.271269  0.751358  0.082218  
         C10       C         C_R       0.231525  0.727540  0.252259  0.079547  
         C11       C         C_R       0.725807  0.770181  0.747927  0.082328  
         C12       C         C_R       0.272967  0.228698  0.248468  0.083073  
         C13       C         C_R       0.227230  0.728961  0.748564  0.076302  
         C14       C         C_R       0.774171  0.270134  0.247762  0.085023  
         C15       C         C_R       0.268425  0.227571  0.752093  0.082560  
         C16       C         C_R       0.729987  0.771423  0.251510  0.083054  
         O1        O         O_3       0.001580  0.500094  0.250004  -1.719624           
         O2        O         O_3       0.998439  0.500220  0.750021  -1.718752           
         O3        O         O_3       0.501552  0.000148  0.249992  -1.718810           
         O4        O         O_3       0.498404  0.000143  0.749968  -1.720921           
         O5        O         O_R       0.001246  0.455882  0.117417  -0.691290           
         O6        O         O_R       0.998612  0.548945  0.880911  -0.691437           
         O7        O         O_R       0.454108  0.999485  0.118530  -0.686524           
         O8        O         O_R       0.545788  0.999367  0.881476  -0.686833           
         O9        O         O_R       0.001488  0.548905  0.119140  -0.691146           
         O10       O         O_R       0.998865  0.455920  0.882589  -0.691192           
         O11       O         O_R       0.547060  0.999073  0.117724  -0.685202           
         O12       O         O_R       0.452839  0.999046  0.882204  -0.685668           
         O13       O         O_R       0.498547  0.955898  0.617279  -0.685872           
         O14       O         O_R       0.500954  0.048824  0.380994  -0.685318           
         O15       O         O_R       0.952923  0.499290  0.617908  -0.691078           
         O16       O         O_R       0.047116  0.499137  0.382131  -0.690972           
         O17       O         O_R       0.498990  0.048843  0.618947  -0.685320           
         O18       O         O_R       0.501372  0.955880  0.382697  -0.685554           
         O19       O         O_R       0.045954  0.498898  0.618668  -0.692661           
         O20       O         O_R       0.954085  0.498715  0.381358  -0.692672           
         O21       O         O_R       0.065580  0.610745  0.217367  -0.675058           
         O22       O         O_R       0.933645  0.391141  0.787723  -0.675546           
         O23       O         O_R       0.610809  0.935409  0.214240  -0.680012           
         O24       O         O_R       0.388138  0.063090  0.786914  -0.677586           
         O25       O         O_R       0.939109  0.389422  0.213566  -0.674463           
         O26       O         O_R       0.061373  0.611647  0.782733  -0.671266           
         O27       O         O_R       0.390375  0.062439  0.215732  -0.676042           
         O28       O         O_R       0.607822  0.934916  0.784599  -0.675496           
         O29       O         O_R       0.934470  0.610818  0.782710  -0.675095           
         O30       O         O_R       0.066337  0.391062  0.212274  -0.675223           
         O31       O         O_R       0.389112  0.935524  0.785693  -0.680481           
         O32       O         O_R       0.611844  0.062962  0.213025  -0.676956           
         O33       O         O_R       0.060866  0.389551  0.786351  -0.673182           
         O34       O         O_R       0.938604  0.611527  0.217349  -0.671196           
         O35       O         O_R       0.609533  0.062446  0.784308  -0.676100           
         O36       O         O_R       0.392144  0.934956  0.215436  -0.675811           
         O37       O         O_R       0.560923  0.111600  0.717600  -0.676333           
         O38       O         O_R       0.438350  0.890212  0.287443  -0.676782           
         O39       O         O_R       0.108840  0.436050  0.717003  -0.672755           
         O40       O         O_R       0.890462  0.562813  0.284670  -0.670690           
         O41       O         O_R       0.434094  0.891070  0.712515  -0.681175           
         O42       O         O_R       0.566502  0.109793  0.284131  -0.676385           
         O43       O         O_R       0.887487  0.562381  0.714120  -0.673635           
         O44       O         O_R       0.110893  0.435096  0.285928  -0.674686           
         O45       O         O_R       0.439047  0.111627  0.282341  -0.676353           
         O46       O         O_R       0.561664  0.890218  0.712529  -0.677246           
         O47       O         O_R       0.891185  0.435826  0.283020  -0.674144           
         O48       O         O_R       0.109517  0.563012  0.715352  -0.670782           
         O49       O         O_R       0.565908  0.891081  0.287558  -0.680266           
         O50       O         O_R       0.433432  0.109850  0.715733  -0.676318           
         O51       O         O_R       0.112559  0.562291  0.285937  -0.673487           
         O52       O         O_R       0.889123  0.435157  0.714043  -0.675035           
         C17       C         C_1       0.000088  0.498711  0.473517  -0.086323           
         C18       C         C_1       0.999939  0.498775  0.526521  -0.085745           
         C19       C         C_1       0.500251  0.003578  0.473503  -0.083727           
         C20       C         C_1       0.499690  0.003582  0.526456  -0.082983           
         C21       C         C_1       0.499815  0.999120  0.973506  -0.082648           
         C22       C         C_1       0.500013  0.999174  0.026461  -0.083779           
         C23       C         C_1       0.999778  0.503656  0.973511  -0.085010           
         C24       C         C_1       0.000441  0.503650  0.026514  -0.086462           
         C25       C         C_R       0.001161  0.502840  0.089632  0.770751  
         C26       C         C_R       0.999012  0.502867  0.910395  0.770017  
         C27       C         C_R       0.500386  0.999256  0.089500  0.759959  
         C28       C         C_R       0.499492  0.999118  0.910467  0.759993  
         C29       C         C_R       0.499027  0.002804  0.589489  0.759441  
         C30       C         C_R       0.500895  0.002790  0.410469  0.759766  
         C31       C         C_R       0.999622  0.498963  0.589641  0.771711  
         C32       C         C_R       0.000414  0.498779  0.410393  0.771694  
         C33       C         C_R       0.108190  0.605346  0.251864  0.544717  
         C34       C         C_R       0.892398  0.394162  0.751026  0.543676  
         C35       C         C_R       0.607326  0.894277  0.251067  0.556392  
         C36       C         C_R       0.391593  0.105226  0.751427  0.547798  
         C37       C         C_R       0.896315  0.393510  0.248060  0.546253  
         C38       C         C_R       0.104393  0.606343  0.748834  0.534418  
         C39       C         C_R       0.395767  0.106026  0.248825  0.549961  
         C40       C         C_R       0.603505  0.893381  0.748452  0.548442  
         C41       C         C_R       0.891873  0.605429  0.748201  0.544337  
         C42       C         C_R       0.107599  0.394106  0.248946  0.543566  
         C43       C         C_R       0.392650  0.894325  0.748964  0.556938  
         C44       C         C_R       0.608363  0.105119  0.248475  0.548542  
         C45       C         C_R       0.103689  0.393700  0.751907  0.544468  
         C46       C         C_R       0.895566  0.606172  0.251221  0.533997  
         C47       C         C_R       0.604179  0.106013  0.751165  0.550816  
         C48       C         C_R       0.396485  0.893406  0.251561  0.548477  
         C49       C         C_R       0.193316  0.275239  0.202646  -0.129426           
         C50       C         C_R       0.819375  0.737853  0.772342  -0.134162           
         C51       C         C_R       0.278068  0.806916  0.205982  -0.132079           
         C52       C         C_R       0.737047  0.177800  0.775890  -0.134316           
         C53       C         C_R       0.823487  0.738898  0.227085  -0.128056           
         C54       C         C_R       0.175170  0.260742  0.777181  -0.136847           
         C55       C         C_R       0.727761  0.190151  0.202226  -0.131662           
         C56       C         C_R       0.273928  0.808292  0.794769  -0.132682           
         C57       C         C_R       0.806672  0.275256  0.797324  -0.128248           
         C58       C         C_R       0.180777  0.737746  0.227714  -0.131887           
         C59       C         C_R       0.721967  0.806935  0.794049  -0.131097           
         C60       C         C_R       0.262987  0.177877  0.223982  -0.134649           
         C61       C         C_R       0.176463  0.739038  0.773139  -0.127766           
         C62       C         C_R       0.824905  0.260477  0.222869  -0.138258           
         C63       C         C_R       0.272237  0.190324  0.797780  -0.131741           
         C64       C         C_R       0.726098  0.808198  0.205418  -0.131816           
         C65       C         C_R       0.688726  0.774108  0.702099  -0.132552           
         C66       C         C_R       0.323793  0.238819  0.272863  -0.136709           
         C67       C         C_R       0.773630  0.308074  0.705290  -0.132660           
         C68       C         C_R       0.241260  0.676742  0.276954  -0.133545           
         C69       C         C_R       0.305311  0.223890  0.706074  -0.131609           
         C70       C         C_R       0.693079  0.775423  0.297479  -0.127285           
         C71       C         C_R       0.237132  0.678190  0.723914  -0.126597           
         C72       C         C_R       0.764024  0.320830  0.272471  -0.133491           
         C73       C         C_R       0.311458  0.773991  0.297831  -0.133777           
         C74       C         C_R       0.676214  0.238788  0.727122  -0.136117           
         C75       C         C_R       0.226364  0.308080  0.294676  -0.133537           
         C76       C         C_R       0.758948  0.676925  0.722900  -0.133983           
         C77       C         C_R       0.694810  0.223542  0.294067  -0.130622           
         C78       C         C_R       0.306872  0.775484  0.702683  -0.129812           
         C79       C         C_R       0.762769  0.677999  0.276154  -0.126919           
         C80       C         C_R       0.236103  0.321170  0.727753  -0.133162           
         H1        H         H_        0.195899  0.248317  0.165144  0.115857  
         H2        H         H_        0.829192  0.777382  0.790517  0.115968  
         H3        H         H_        0.251038  0.804262  0.168578  0.117059  
         H4        H         H_        0.776615  0.167762  0.793834  0.115935  
         H5        H         H_        0.833404  0.778448  0.209028  0.115197  
         H6        H         H_        0.165060  0.221297  0.795374  0.117607  
         H7        H         H_        0.754701  0.192567  0.164732  0.116761  
         H8        H         H_        0.247018  0.805599  0.832270  0.117228  
         H9        H         H_        0.804087  0.248325  0.834818  0.115564  
         H10       H         H_        0.170949  0.777305  0.209627  0.115369  
         H11       H         H_        0.748958  0.804250  0.831483  0.116824  
         H12       H         H_        0.223430  0.167855  0.206006  0.116075  
         H13       H         H_        0.166567  0.778564  0.791281  0.115248  
         H14       H         H_        0.834998  0.221041  0.204641  0.118102  
         H15       H         H_        0.245264  0.192700  0.835249  0.116687  
         H16       H         H_        0.753039  0.805482  0.167945  0.117100  
         H17       H         H_        0.691225  0.747208  0.664576  0.116640  
         H18       H         H_        0.333738  0.278393  0.290846  0.116963  
         H19       H         H_        0.746663  0.305372  0.667834  0.117394  
         H20       H         H_        0.280733  0.666641  0.295084  0.116461  
         H21       H         H_        0.302742  0.251012  0.668744  0.117114  
         H22       H         H_        0.695673  0.748521  0.334996  0.115179  
         H23       H         H_        0.276648  0.668166  0.705836  0.114698  
         H24       H         H_        0.724526  0.330625  0.290727  0.115938  
         H25       H         H_        0.309047  0.747027  0.335308  0.117012  
         H26       H         H_        0.666264  0.278373  0.709172  0.116828  
         H27       H         H_        0.253321  0.305391  0.332142  0.117597  
         H28       H         H_        0.719502  0.666836  0.704692  0.116515  
         H29       H         H_        0.697441  0.250557  0.331483  0.116862  
         H30       H         H_        0.304237  0.748593  0.665160  0.115918  
         H31       H         H_        0.723242  0.667982  0.294211  0.114750  
         H32       H         H_        0.275629  0.331005  0.709588  0.115765  
         C81       C         C_R       0.153183  0.314787  0.203036  -0.201558           
         C82       C         C_R       0.859136  0.697965  0.772909  -0.194419           
         C83       C         C_R       0.317443  0.847184  0.206160  -0.197466           
         C84       C         C_R       0.696959  0.138193  0.776350  -0.185776           
         C85       C         C_R       0.863177  0.698922  0.226565  -0.200371           
         C86       C         C_R       0.135689  0.300966  0.777665  -0.186843           
         C87       C         C_R       0.688158  0.150051  0.202716  -0.197807           
         C88       C         C_R       0.313437  0.848441  0.794523  -0.197891           
         C89       C         C_R       0.846775  0.314846  0.796956  -0.202502           
         C90       C         C_R       0.140988  0.697887  0.227190  -0.194792           
         C91       C         C_R       0.682514  0.847130  0.793905  -0.196920           
         C92       C         C_R       0.303066  0.138274  0.223501  -0.186833           
         C93       C         C_R       0.136771  0.699062  0.773619  -0.201197           
         C94       C         C_R       0.864354  0.300739  0.222302  -0.186545           
         C95       C         C_R       0.311777  0.150158  0.797213  -0.198416           
         C96       C         C_R       0.686612  0.848375  0.205615  -0.197933           
         C97       C         C_R       0.648576  0.813665  0.702607  -0.195320           
         C98       C         C_R       0.363474  0.198835  0.273350  -0.186330           
         C99       C         C_R       0.813120  0.348255  0.705500  -0.199828           
         C100      C         C_R       0.201028  0.637258  0.277436  -0.188445           
         C101      C         C_R       0.345503  0.184433  0.706176  -0.199738           
         C102      C         C_R       0.652952  0.814993  0.297077  -0.201097           
         C103      C         C_R       0.197028  0.638620  0.723397  -0.202056           
         C104      C         C_R       0.803875  0.360625  0.272961  -0.193963           
         C105      C         C_R       0.351514  0.813640  0.297366  -0.195361           
         C106      C         C_R       0.636512  0.198823  0.726661  -0.186055           
         C107      C         C_R       0.186872  0.348250  0.294456  -0.199037           
         C108      C         C_R       0.799156  0.637432  0.722446  -0.189234           
         C109      C         C_R       0.654548  0.184161  0.293872  -0.199736           
         C110      C         C_R       0.347047  0.814994  0.703066  -0.199681           
         C111      C         C_R       0.802860  0.638399  0.276588  -0.201423           
         C112      C         C_R       0.196219  0.360935  0.727194  -0.192785           
         H33       H         H_        0.125059  0.317059  0.166507  0.153984  
         H34       H         H_        0.898358  0.707111  0.792312  0.151213  
         H35       H         H_        0.319429  0.875281  0.169586  0.152737  
         H36       H         H_        0.705982  0.098794  0.795395  0.146678  
         H37       H         H_        0.902475  0.708008  0.207314  0.151537  
         H38       H         H_        0.096340  0.292197  0.796964  0.146876  
         H39       H         H_        0.685805  0.121846  0.166265  0.152185  
         H40       H         H_        0.315685  0.876423  0.831178  0.153166  
         H41       H         H_        0.874843  0.317176  0.833532  0.154244  
         H42       H         H_        0.101737  0.707095  0.207891  0.151097  
         H43       H         H_        0.680406  0.875130  0.830557  0.152378  
         H44       H         H_        0.294070  0.098923  0.204329  0.147236  
         H45       H         H_        0.097486  0.708108  0.792925  0.151849  
         H46       H         H_        0.903665  0.292022  0.202877  0.147024  
         H47       H         H_        0.314015  0.121831  0.833564  0.152444  
         H48       H         H_        0.684428  0.876362  0.168957  0.153043  
         H49       H         H_        0.620370  0.815991  0.666155  0.151930  
         H50       H         H_        0.402814  0.207942  0.292487  0.147696  
         H51       H         H_        0.815290  0.376264  0.668859  0.153646  
         H52       H         H_        0.209819  0.597885  0.296674  0.147260  
         H53       H         H_        0.373605  0.182459  0.669606  0.153313  
         H54       H         H_        0.624876  0.817332  0.333646  0.153800  
         H55       H         H_        0.205962  0.599297  0.704122  0.151890  
         H56       H         H_        0.794725  0.399834  0.292392  0.150381  
         H57       H         H_        0.379705  0.816008  0.333828  0.152076  
         H58       H         H_        0.597165  0.207959  0.707560  0.147489  
         H59       H         H_        0.184682  0.376259  0.331095  0.153437  
         H60       H         H_        0.790393  0.598091  0.703128  0.147612  
         H61       H         H_        0.626429  0.182161  0.330425  0.153287  
         H62       H         H_        0.375147  0.817260  0.666514  0.153589  
         H63       H         H_        0.793895  0.599031  0.295740  0.151524  
         H64       H         H_        0.205368  0.400158  0.707795  0.149758  
         C113      C         C_R       0.149910  0.351705  0.248775  0.189150  
         C114      C         C_R       0.849350  0.647606  0.747777  0.183514  
         C115      C         C_R       0.354521  0.850669  0.251715  0.182515  
         C116      C         C_R       0.646556  0.148369  0.751463  0.175450  
         C117      C         C_R       0.853195  0.648525  0.251531  0.196430  
         C118      C         C_R       0.145865  0.351165  0.752340  0.181047  
         C119      C         C_R       0.651109  0.147061  0.248342  0.186128  
         C120      C         C_R       0.350358  0.851907  0.748810  0.181787  
         C121      C         C_R       0.850083  0.351739  0.751187  0.189930  
         C122      C         C_R       0.150774  0.647491  0.252242  0.182911  
         C123      C         C_R       0.645492  0.850652  0.748295  0.182410  
         C124      C         C_R       0.353425  0.148402  0.248500  0.176957  
         C125      C         C_R       0.146734  0.648708  0.748548  0.196585  
         C126      C         C_R       0.854183  0.350921  0.247680  0.181277  
         C127      C         C_R       0.348879  0.147227  0.751622  0.187160  
         C128      C         C_R       0.649646  0.851867  0.251289  0.182001 
loop_
  _geom_bond_atom_site_label_1
  _geom_bond_atom_site_label_2
  _geom_bond_distance
  _geom_bond_site_symmetry_2
  _ccdc_geom_bond_type
         Zn1       O1        1.949     .         S         
         Zn1       O16       1.933     .         S         
         Zn1       O44       1.937     .         S         
         Zn1       O51       1.941     .         S         
         Zn2       O2        1.949     .         S         
         Zn2       O15       1.932     .         S         
         Zn2       O43       1.940     .         S         
         Zn2       O52       1.937     .         S         
         Zn3       O3        1.949     1_565     S         
         Zn3       O18       1.929     .         S         
         Zn3       O38       1.940     .         S         
         Zn3       O49       1.939     .         S         
         Zn4       O4        1.948     .         S         
         Zn4       O17       1.933     .         S         
         Zn4       O37       1.938     .         S         
         Zn4       O50       1.936     .         S         
         Zn5       O1        1.949     1_655     S         
         Zn5       O20       1.936     .         S         
         Zn5       O40       1.938     .         S         
         Zn5       O47       1.936     .         S         
         Zn6       O2        1.949     1_455     S         
         Zn6       O19       1.936     .         S         
         Zn6       O39       1.935     .         S         
         Zn6       O48       1.938     .         S         
         Zn7       O3        1.948     .         S         
         Zn7       O14       1.933     .         S         
         Zn7       O42       1.935     .         S         
         Zn7       O45       1.938     .         S         
         Zn8       O4        1.948     1_565     S         
         Zn8       O13       1.930     .         S         
         Zn8       O41       1.938     .         S         
         Zn8       O46       1.940     .         S         
         Zn9       O4        1.948     1_565     S         
         Zn9       O8        1.933     .         S         
         Zn9       O28       1.936     .         S         
         Zn9       O35       1.939     1_565     S         
         Zn10      O3        1.948     1_565     S         
         Zn10      O7        1.933     .         S         
         Zn10      O27       1.938     1_565     S         
         Zn10      O36       1.935     .         S         
         Zn11      O2        1.949     .         S         
         Zn11      O10       1.933     .         S         
         Zn11      O22       1.939     .         S         
         Zn11      O33       1.940     1_655     S         
         Zn12      O1        1.949     .         S         
         Zn12      O9        1.936     .         S         
         Zn12      O21       1.936     .         S         
         Zn12      O34       1.937     1_455     S         
         Zn13      O4        1.948     1_565     S         
         Zn13      O12       1.929     .         S         
         Zn13      O24       1.940     1_565     S         
         Zn13      O31       1.937     .         S         
         Zn14      O3        1.948     1_565     S         
         Zn14      O11       1.930     .         S         
         Zn14      O23       1.938     .         S         
         Zn14      O32       1.939     1_565     S         
         Zn15      O2        1.948     .         S         
         Zn15      O6        1.936     .         S         
         Zn15      O26       1.937     1_655     S         
         Zn15      O29       1.935     .         S         
         Zn16      O1        1.949     .         S         
         Zn16      O5        1.933     .         S         
         Zn16      O25       1.941     1_455     S         
         Zn16      O30       1.938     .         S         
         C1        C12       1.478     .         S         
         C2        C11       1.478     .         S         
         C3        C10       1.478     .         S         
         C4        C9        1.478     .         S         
         C5        C16       1.478     .         S         
         C6        C15       1.478     .         S         
         C7        C14       1.478     .         S         
         C8        C13       1.478     .         S         
         O1        Zn5       1.949     1_455     S         
         O2        Zn6       1.949     1_655     S         
         O3        Zn3       1.949     1_545     S         
         O3        Zn10      1.948     1_545     S         
         O3        Zn14      1.948     1_545     S         
         O4        Zn8       1.948     1_545     S         
         O4        Zn9       1.948     1_545     S         
         O4        Zn13      1.948     1_545     S         
         O24       Zn13      1.940     1_545     S         
         O25       Zn16      1.941     1_655     S         
         O26       Zn15      1.937     1_455     S         
         O27       Zn10      1.938     1_545     S         
         O32       Zn14      1.939     1_545     S         
         O33       Zn11      1.940     1_455     S         
         O34       Zn12      1.937     1_655     S         
         O35       Zn9       1.939     1_545     S         
         C17       C32       1.435     .         S         
         C18       C31       1.435     .         S         
         C19       C30       1.434     .         S         
         C20       C29       1.434     .         S         
         C21       C28       1.433     .         S         
         C22       C27       1.433     .         S         
         C23       C26       1.435     .         S         
         C24       C25       1.435     .         S         
         C33       C122      1.467     .         S         
         C34       C121      1.468     .         S         
         C35       C128      1.467     .         S         
         C36       C127      1.467     .         S         
         C37       C126      1.467     .         S         
         C38       C125      1.467     .         S         
         C39       C124      1.467     .         S         
         C40       C123      1.467     .         S         
         C41       C114      1.467     .         S         
         C42       C113      1.467     .         S         
         C43       C120      1.467     .         S         
         C44       C119      1.467     .         S         
         C45       C118      1.467     .         S         
         C46       C117      1.467     .         S         
         C47       C116      1.467     .         S         
         C48       C115      1.467     .         S         
         C49       H1        1.080     .         S         
         C50       H2        1.080     .         S         
         C51       H3        1.080     .         S         
         C52       H4        1.080     .         S         
         C53       H5        1.080     .         S         
         C54       H6        1.080     .         S         
         C55       H7        1.080     .         S         
         C56       H8        1.080     .         S         
         C57       H9        1.080     .         S         
         C58       H10       1.080     .         S         
         C59       H11       1.080     .         S         
         C60       H12       1.080     .         S         
         C61       H13       1.080     .         S         
         C62       H14       1.080     .         S         
         C63       H15       1.080     .         S         
         C64       H16       1.080     .         S         
         C65       H17       1.080     .         S         
         C66       H18       1.080     .         S         
         C67       H19       1.080     .         S         
         C68       H20       1.080     .         S         
         C69       H21       1.080     .         S         
         C70       H22       1.080     .         S         
         C71       H23       1.080     .         S         
         C72       H24       1.080     .         S         
         C73       H25       1.080     .         S         
         C74       H26       1.080     .         S         
         C75       H27       1.080     .         S         
         C76       H28       1.080     .         S         
         C77       H29       1.080     .         S         
         C78       H30       1.080     .         S         
         C79       H31       1.080     .         S         
         C80       H32       1.080     .         S         
         C81       H33       1.081     .         S         
         C82       H34       1.081     .         S         
         C83       H35       1.081     .         S         
         C84       H36       1.081     .         S         
         C85       H37       1.081     .         S         
         C86       H38       1.081     .         S         
         C87       H39       1.081     .         S         
         C88       H40       1.080     .         S         
         C89       H41       1.081     .         S         
         C90       H42       1.081     .         S         
         C91       H43       1.081     .         S         
         C92       H44       1.081     .         S         
         C93       H45       1.081     .         S         
         C94       H46       1.081     .         S         
         C95       H47       1.081     .         S         
         C96       H48       1.081     .         S         
         C97       H49       1.081     .         S         
         C98       H50       1.081     .         S         
         C99       H51       1.081     .         S         
         C100      H52       1.081     .         S         
         C101      H53       1.081     .         S         
         C102      H54       1.081     .         S         
         C103      H55       1.081     .         S         
         C104      H56       1.081     .         S         
         C105      H57       1.081     .         S         
         C106      H58       1.080     .         S         
         C107      H59       1.081     .         S         
         C108      H60       1.080     .         S         
         C109      H61       1.081     .         S         
         C110      H62       1.081     .         S         
         C111      H63       1.081     .         S         
         C112      H64       1.081     .         S         
         C1        C49       1.385     .         A         
         C1        C75       1.385     .         A         
         C2        C50       1.385     .         A         
         C2        C76       1.386     .         A         
         C3        C51       1.385     .         A         
         C3        C73       1.386     .         A         
         C4        C52       1.385     .         A         
         C4        C74       1.385     .         A         
         C5        C53       1.385     .         A         
         C5        C79       1.385     .         A         
         C6        C54       1.386     .         A         
         C6        C80       1.385     .         A         
         C7        C55       1.386     .         A         
         C7        C77       1.385     .         A         
         C8        C56       1.385     .         A         
         C8        C78       1.385     .         A         
         C9        C57       1.385     .         A         
         C9        C67       1.385     .         A         
         C10       C58       1.385     .         A         
         C10       C68       1.386     .         A         
         C11       C59       1.385     .         A         
         C11       C65       1.386     .         A         
         C12       C60       1.385     .         A         
         C12       C66       1.385     .         A         
         C13       C61       1.385     .         A         
         C13       C71       1.385     .         A         
         C14       C62       1.386     .         A         
         C14       C72       1.385     .         A         
         C15       C63       1.386     .         A         
         C15       C69       1.385     .         A         
         C16       C64       1.385     .         A         
         C16       C70       1.385     .         A         
         O5        C25       1.312     .         A         
         O6        C26       1.313     .         A         
         O7        C27       1.312     .         A         
         O8        C28       1.312     .         A         
         O9        C25       1.313     .         A         
         O10       C26       1.312     .         A         
         O11       C27       1.311     .         A         
         O12       C28       1.311     .         A         
         O13       C29       1.311     1_565     A         
         O14       C30       1.312     .         A         
         O15       C31       1.312     .         A         
         O16       C32       1.312     .         A         
         O17       C29       1.312     .         A         
         O18       C30       1.311     1_565     A         
         O19       C31       1.313     1_455     A         
         O20       C32       1.313     1_655     A         
         O21       C33       1.312     .         A         
         O22       C34       1.312     .         A         
         O23       C35       1.313     .         A         
         O24       C36       1.313     .         A         
         O25       C37       1.313     .         A         
         O26       C38       1.312     .         A         
         O27       C39       1.313     .         A         
         O28       C40       1.312     .         A         
         O29       C41       1.312     .         A         
         O30       C42       1.312     .         A         
         O31       C43       1.313     .         A         
         O32       C44       1.313     .         A         
         O33       C45       1.313     .         A         
         O34       C46       1.312     .         A         
         O35       C47       1.313     .         A         
         O36       C48       1.312     .         A         
         O37       C47       1.313     .         A         
         O38       C48       1.313     .         A         
         O39       C45       1.312     .         A         
         O40       C46       1.312     .         A         
         O41       C43       1.313     .         A         
         O42       C44       1.312     .         A         
         O43       C41       1.313     .         A         
         O44       C42       1.312     .         A         
         O45       C39       1.313     .         A         
         O46       C40       1.313     .         A         
         O47       C37       1.312     .         A         
         O48       C38       1.312     .         A         
         O49       C35       1.313     .         A         
         O50       C36       1.312     .         A         
         O51       C33       1.313     .         A         
         O52       C34       1.312     .         A         
         C29       O13       1.311     1_545     A         
         C30       O18       1.311     1_545     A         
         C31       O19       1.313     1_655     A         
         C32       O20       1.313     1_455     A         
         C49       C81       1.380     .         A         
         C50       C82       1.379     .         A         
         C51       C83       1.379     .         A         
         C52       C84       1.380     .         A         
         C53       C85       1.380     .         A         
         C54       C86       1.380     .         A         
         C55       C87       1.380     .         A         
         C56       C88       1.380     .         A         
         C57       C89       1.380     .         A         
         C58       C90       1.379     .         A         
         C59       C91       1.379     .         A         
         C60       C92       1.380     .         A         
         C61       C93       1.380     .         A         
         C62       C94       1.381     .         A         
         C63       C95       1.381     .         A         
         C64       C96       1.380     .         A         
         C65       C97       1.380     .         A         
         C66       C98       1.380     .         A         
         C67       C99       1.380     .         A         
         C68       C100      1.381     .         A         
         C69       C101      1.379     .         A         
         C70       C102      1.380     .         A         
         C71       C103      1.380     .         A         
         C72       C104      1.379     .         A         
         C73       C105      1.380     .         A         
         C74       C106      1.380     .         A         
         C75       C107      1.380     .         A         
         C76       C108      1.380     .         A         
         C77       C109      1.379     .         A         
         C78       C110      1.380     .         A         
         C79       C111      1.380     .         A         
         C80       C112      1.379     .         A         
         C81       C113      1.380     .         A         
         C82       C114      1.380     .         A         
         C83       C115      1.380     .         A         
         C84       C116      1.381     .         A         
         C85       C117      1.380     .         A         
         C86       C118      1.380     .         A         
         C87       C119      1.380     .         A         
         C88       C120      1.380     .         A         
         C89       C121      1.381     .         A         
         C90       C122      1.380     .         A         
         C91       C123      1.380     .         A         
         C92       C124      1.381     .         A         
         C93       C125      1.380     .         A         
         C94       C126      1.380     .         A         
         C95       C127      1.380     .         A         
         C96       C128      1.380     .         A         
         C97       C123      1.380     .         A         
         C98       C124      1.380     .         A         
         C99       C121      1.381     .         A         
         C100      C122      1.381     .         A         
         C101      C127      1.380     .         A         
         C102      C128      1.381     .         A         
         C103      C125      1.380     .         A         
         C104      C126      1.380     .         A         
         C105      C115      1.380     .         A         
         C106      C116      1.380     .         A         
         C107      C113      1.380     .         A         
         C108      C114      1.380     .         A         
         C109      C119      1.380     .         A         
         C110      C120      1.381     .         A         
         C111      C117      1.381     .         A         
         C112      C118      1.380     .         A         
         C17       C18       1.205     1_455     T         
         C18       C17       1.205     1_655     T         
         C19       C20       1.204     .         T         
         C21       C22       1.204     1_556     T         
         C22       C21       1.204     1_554     T         
         C23       C24       1.205     1_656     T         
         C24       C23       1.205     1_454     T 