# Generated by REPEAT Assigner based on pymatgen
data_DB15-qtz-x_N123_E175_opt
_audit_creation_date              2022-05-22
_audit_creation_method            REPEAT_Assigner
_cell_length_a                    10.205004
_cell_length_b                    10.177489
_cell_length_c                    31.139478
_cell_angle_alpha                 86.772875
_cell_angle_beta                  95.718329
_cell_angle_gamma                 60.259468
_cell_volume                      2773.209000
_symmetry_space_group_name_H-M    P1
_symmetry_Int_Tables_number       1
loop_
    _symmetry_equiv_pos_site_id
    _symmetry_equiv_pos_as_xyz
    1  x,y,z
loop_
    _atom_site_type_symbol
    _atom_site_label
    _atom_site_fract_x
    _atom_site_fract_y
    _atom_site_fract_z
    _atom_type_partial_charge
    Ce  Ce1  0.562047  0.281745  0.171488  1.924594
    Ce  Ce2  0.829933  0.490372  0.178615  1.982787
    C   C1   0.484097  0.682393  0.171267  0.719196
    C   C2   0.401926  0.216186  0.100535  0.693654
    C   C3   0.749040  0.314949  0.268853  0.760586
    C   C4   0.905013  0.083136  0.177616  0.787207
    C   C5   0.999808  0.550485  0.248499  0.647479
    C   C6   0.653825  0.442916  0.081127  0.948721
    O   O1   0.573066  0.729756  0.173234  -0.592849
    O   O2   0.536344  0.532670  0.171443  -0.756860
    O   O3   0.328570  0.335792  0.120951  -0.672244
    O   O4   0.546831  0.119856  0.113322  -0.640567
    O   O5   0.668662  0.266363  0.247049  -0.722736
    O   O6   0.804087  0.390311  0.249278  -0.624716
    O   O7   0.811011  0.043839  0.180240  -0.562681
    O   O8   0.861025  0.232671  0.178280  -0.721424
    O   O9   0.067539  0.431325  0.227578  -0.700569
    O   O10  0.853732  0.647957  0.237563  -0.585338
    O   O11  0.722860  0.504376  0.102460  -0.753247
    O   O12  0.605990  0.362310  0.101378  -0.707729
    Ce  Ce3  0.953635  0.805913  0.493533  1.831504
    Ce  Ce4  0.160477  0.331007  0.507469  1.807363
    C   C7   0.362711  0.471590  0.511724  0.773633
    C   C8   0.873182  0.041542  0.423122  0.551309
    C   C9   0.999869  0.576478  0.590503  0.876956
    C   C10  0.760155  0.654586  0.490976  0.780128
    C   C11  0.227928  0.099019  0.578266  0.637841
    C   C12  0.115776  0.562040  0.410281  0.747224
    O   O13  0.399709  0.337802  0.517414  -0.586905
    O   O14  0.212090  0.578366  0.506250  -0.765349
    O   O15  0.996347  0.993084  0.451394  -0.673660
    O   O16  0.781177  0.988140  0.426566  -0.594118
    O   O17  0.947513  0.706674  0.566569  -0.727859
    O   O18  0.074679  0.447141  0.574410  -0.584563
    O   O19  0.711760  0.791614  0.486553  -0.617522
    O   O20  0.910407  0.556750  0.494539  -0.805329
    O   O21  0.108395  0.147603  0.548546  -0.664348
    O   O22  0.323020  0.149355  0.575742  -0.586832
    O   O23  0.169949  0.431094  0.434305  -0.676676
    O   O24  0.034965  0.690923  0.426072  -0.561645
    Ce  Ce5  0.568739  0.630412  0.811939  2.039509
    Ce  Ce6  0.038859  0.349575  0.854803  2.046712
    C   C13  0.893407  0.695406  0.838918  0.760780
    C   C14  0.387750  0.781577  0.727884  0.501448
    C   C15  0.734188  0.476888  0.920697  0.669737
    C   C16  0.705501  0.286433  0.823518  0.667191
    C   C17  0.204263  0.221656  0.942205  0.658099
    C   C18  0.871171  0.504088  0.745131  0.488858
    O   O25  0.028466  0.604363  0.850904  -0.572145
    O   O26  0.795535  0.645451  0.831310  -0.753270
    O   O27  0.430188  0.852814  0.754607  -0.646322
    O   O28  0.416673  0.643106  0.739565  -0.588647
    O   O29  0.616017  0.550670  0.890432  -0.716953
    O   O30  0.873477  0.409770  0.911466  -0.538786
    O   O31  0.572618  0.385604  0.813017  -0.496645
    O   O32  0.811342  0.327525  0.833560  -0.681247
    O   O33  0.172732  0.138682  0.916998  -0.683052
    O   O34  0.179638  0.355177  0.926512  -0.619830
    O   O35  0.991242  0.425719  0.775040  -0.676968
    O   O36  0.732646  0.571582  0.755060  -0.465809
    N   N1   0.229081  0.726699  0.156607  -0.441747
    C   C19  0.319105  0.783051  0.168524  0.044480
    C   C20  0.059744  0.962377  0.172220  -0.366448
    C   C21  0.083373  0.826500  0.158268  0.607772
    C   C22  0.963405  0.788491  0.144196  -0.556564
    S   S1   0.226610  0.966037  0.182612  0.094972
    H   H1   0.875973  0.877776  0.118578  0.187649
    H   H2   0.017355  0.678211  0.130563  0.116417
    H   H3   0.910630  0.775552  0.172337  0.113194
    N   N2   0.734919  0.436002  0.506123  -0.417389
    C   C23  0.663711  0.587571  0.496600  0.019531
    C   C24  0.487443  0.505003  0.508623  -0.307732
    C   C25  0.637995  0.388131  0.512797  0.559740
    C   C26  0.697239  0.221726  0.523423  -0.529413
    S   S2   0.468317  0.681384  0.495749  0.082287
    H   H4   0.652544  0.178922  0.497140  0.122576
    H   H5   0.823284  0.160503  0.525821  0.147754
    H   H6   0.667475  0.198899  0.555218  0.151797
    N   N3   0.680098  0.943432  0.814142  -0.400793
    C   C27  0.827619  0.860984  0.831298  0.064259
    C   C28  0.741066  0.126574  0.824527  -0.247034
    C   C29  0.630299  0.092078  0.810057  0.410872
    C   C30  0.468755  0.202437  0.791004  -0.311634
    S   S3   0.914690  0.965478  0.843484  0.052185
    H   H7   0.464526  0.272438  0.761699  0.142394
    H   H8   0.412157  0.137599  0.781096  0.076581
    H   H9   0.406660  0.275353  0.815553  0.049168
    N   N4   0.754965  0.299336  0.979075  -0.416493
    C   C31  0.711281  0.443011  0.963851  0.180008
    C   C32  0.665162  0.431214  0.035446  -0.309807
    C   C33  0.727465  0.292605  0.019720  0.377714
    C   C34  0.775353  0.145080  0.045699  -0.275750
    S   S4   0.639593  0.576468  0.999122  0.034732
    H   H10  0.673204  0.142265  0.053020  0.176906
    H   H11  0.839294  0.050663  0.026436  0.057481
    H   H12  0.849648  0.130538  0.076215  0.056876
    N   N5   0.922189  0.218611  0.382314  -0.532784
    C   C35  0.844995  0.144655  0.385419  0.265347
    C   C36  0.789309  0.268380  0.315202  -0.328512
    C   C37  0.888984  0.290487  0.342254  0.395669
    C   C38  0.961907  0.376642  0.329104  -0.249515
    S   S5   0.732398  0.155863  0.339521  0.161543
    H   H13  0.871781  0.494445  0.315995  0.087708
    H   H14  0.031057  0.377101  0.358622  0.092409
    H   H15  0.036716  0.317990  0.304765  0.151259
    N   N6   0.268169  0.792640  0.654511  -0.386961
    C   C39  0.319909  0.854004  0.684007  0.108587
    C   C40  0.251932  0.996227  0.616001  -0.261786
    C   C41  0.226667  0.876025  0.615689  0.331748
    C   C42  0.174207  0.831799  0.575782  -0.022877
    S   S6   0.326399  0.011122  0.665424  0.217846
    H   H16  0.243588  0.828287  0.550169  0.021133
    H   H17  0.189556  0.716927  0.583334  -0.009050
    H   H18  0.052297  0.915633  0.564226  -0.004810
    N   N7   0.129740  0.226373  0.013446  -0.422624
    C   C43  0.243150  0.181319  0.989107  0.148598
    C   C44  0.327414  0.196171  0.061105  -0.260061
    C   C45  0.177762  0.233573  0.054296  0.556435
    C   C46  0.074017  0.286828  0.087598  -0.605776
    S   S7   0.413358  0.149754  0.015547  0.045431
    H   H19  0.054587  0.399147  0.095786  0.151555
    H   H20  0.963702  0.298341  0.074279  0.191420
    H   H21  0.124907  0.202653  0.117159  0.106602
    N   N8   0.215878  0.435939  0.305877  -0.459834
    C   C47  0.080526  0.557256  0.288897  0.073462
    C   C48  0.133299  0.561203  0.364259  -0.335219
    C   C49  0.246804  0.438129  0.348419  0.452696
    C   C50  0.381093  0.306141  0.375562  -0.183401
    S   S8   0.985806  0.682182  0.324684  0.106069
    H   H22  0.345348  0.239988  0.395810  0.069588
    H   H23  0.453659  0.228656  0.353598  0.054795
    H   H24  0.446329  0.346008  0.396126  0.025238
    N   N9   0.769581  0.667817  0.677488  -0.361459
    C   C51  0.886001  0.542200  0.701034  0.170552
    C   C52  0.946597  0.579245  0.632250  -0.344488
    C   C53  0.803784  0.690153  0.638672  0.454844
    C   C54  0.690755  0.819480  0.605818  -0.528559
    S   S9   0.043683  0.442050  0.676025  0.081312
    H   H25  0.671976  0.775723  0.575370  0.139390
    H   H26  0.581143  0.880411  0.618796  0.155456
    H   H27  0.731043  0.900817  0.599396  0.157404
loop_
    _geom_bond_atom_site_label_1
    _geom_bond_atom_site_label_2
    _geom_bond_distance
    _ccdc_geom_bond_type
    Ce1  O8   2.819724  X
    Ce1  O4   2.559925  X
    Ce1  O7   2.465010  X
    Ce1  O2   2.434247  X
    Ce1  O5   2.454371  X
    Ce1  O12  2.449099  X
    Ce1  O3   2.512185  X
    Ce2  O11  2.475681  X
    Ce2  O8   2.481469  X
    Ce2  O1   2.522972  X
    Ce2  O2   2.790675  X
    Ce2  O6   2.465421  X
    Ce2  O10  2.574833  X
    Ce2  O9   2.505933  X
    C1   O1   1.219387  X
    C1   O2   1.341151  X
    C1   C19  1.463527  X
    C2   O4   1.306437  X
    C2   C44  1.457068  X
    C2   O3   1.313098  X
    C3   C36  1.445036  X
    C3   O6   1.310911  X
    C3   O5   1.306739  X
    C4   O8   1.358556  X
    C4   O7   1.216331  X
    C4   C20  1.477420  X
    C5   O10  1.309918  X
    C5   C47  1.457860  X
    C5   O9   1.311467  X
    C6   C32  1.445415  X
    C6   O11  1.311339  X
    C6   O12  1.307434  X
    Ce3  O16  2.545657  X
    Ce3  O20  2.780258  X
    Ce3  O24  2.476280  X
    Ce3  O19  2.532615  X
    Ce3  O14  2.470836  X
    Ce3  O15  2.489362  X
    Ce3  O17  2.455354  X
    Ce4  O20  2.413947  X
    Ce4  O18  2.474500  X
    Ce4  O14  2.815216  X
    Ce4  O23  2.473428  X
    Ce4  O21  2.500750  X
    Ce4  O13  2.465806  X
    Ce4  O22  2.549779  X
    C7   O14  1.357320  X
    C7   C24  1.481713  X
    C7   O13  1.215490  X
    C8   O16  1.306996  X
    C8   C35  1.434201  X
    C8   O15  1.309077  X
    C9   C52  1.454665  X
    C9   O18  1.311544  X
    C9   O17  1.305289  X
    C10  O20  1.339306  X
    C10  O19  1.220355  X
    C10  C23  1.466775  X
    C11  O21  1.309222  X
    C11  C40  1.444016  X
    C11  O22  1.309284  X
    C12  O24  1.312496  X
    C12  C48  1.461766  X
    C12  O23  1.309856  X
    Ce5  O27  2.485271  X
    Ce5  O29  2.453339  X
    Ce5  O26  2.414049  X
    Ce5  O31  2.470402  X
    Ce5  O28  2.564247  X
    Ce5  O32  2.819139  X
    Ce5  O36  2.451439  X
    Ce6  O26  2.782121  X
    Ce6  O32  2.471104  X
    Ce6  O35  2.484953  X
    Ce6  O25  2.537575  X
    Ce6  O33  2.513887  X
    Ce6  O30  2.454859  X
    Ce6  O34  2.551419  X
    C13  O26  1.335066  X
    C13  C27  1.465463  X
    C13  O25  1.220248  X
    C14  O27  1.308928  X
    C14  C39  1.442652  X
    C14  O28  1.309087  X
    C15  C31  1.438646  X
    C15  O29  1.304507  X
    C15  O30  1.307641  X
    C16  O31  1.217002  X
    C16  C28  1.478459  X
    C16  O32  1.354586  X
    C17  C43  1.454115  X
    C17  O33  1.314030  X
    C17  O34  1.307875  X
    C18  O36  1.308980  X
    C18  O35  1.313129  X
    C18  C51  1.448657  X
    N1   C19  1.337690  X
    N1   C21  1.329723  X
    C19  S1   1.726890  X
    C20  S1   1.720565  X
    C20  C21  1.384541  X
    C21  C22  1.490824  X
    C22  H1   1.109207  X
    C22  H2   1.109144  X
    C22  H3   1.107571  X
    N2   C23  1.337527  X
    N2   C25  1.329127  X
    C23  S2   1.728026  X
    C24  S2   1.725402  X
    C24  C25  1.386316  X
    C25  C26  1.491445  X
    C26  H5   1.108512  X
    C26  H6   1.109294  X
    C26  H4   1.109303  X
    N3   C29  1.328836  X
    N3   C27  1.338594  X
    C27  S3   1.726363  X
    C28  S3   1.725224  X
    C28  C29  1.383508  X
    C29  C30  1.491394  X
    C30  H9   1.109270  X
    C30  H8   1.108965  X
    C30  H7   1.109328  X
    N4   C33  1.328702  X
    N4   C31  1.339681  X
    C31  S4   1.711312  X
    C32  C33  1.372606  X
    C32  S4   1.703860  X
    C33  C34  1.484604  X
    C34  H10  1.102591  X
    C34  H12  1.108597  X
    C34  H11  1.108948  X
    N5   C37  1.331600  X
    N5   C35  1.338554  X
    C35  S5   1.703055  X
    C36  S5   1.694691  X
    C36  C37  1.368411  X
    C37  C38  1.469025  X
    C38  H15  1.108002  X
    C38  H13  1.107265  X
    C38  H14  1.103349  X
    N6   C39  1.344456  X
    N6   C41  1.336740  X
    C39  S6   1.704343  X
    C40  S6   1.696032  X
    C40  C41  1.370017  X
    C41  C42  1.484231  X
    C42  H17  1.107552  X
    C42  H18  1.108292  X
    C42  H16  1.108760  X
    N7   C45  1.336240  X
    N7   C43  1.345934  X
    C43  S7   1.711654  X
    C44  C45  1.368139  X
    C44  S7   1.708011  X
    C45  C46  1.484176  X
    C46  H19  1.108634  X
    C46  H20  1.106211  X
    C46  H21  1.107026  X
    N8   C49  1.334921  X
    N8   C47  1.341962  X
    C47  S8   1.716857  X
    C48  C49  1.377637  X
    C48  S8   1.709105  X
    C49  C50  1.487222  X
    C50  H23  1.104684  X
    C50  H22  1.107071  X
    C50  H24  1.109135  X
    N9   C53  1.329039  X
    N9   C51  1.340698  X
    C51  S9   1.716555  X
    C52  S9   1.712726  X
    C52  C53  1.374584  X
    C53  C54  1.488794  X
    C54  H26  1.108694  X
    C54  H27  1.108921  X
    C54  H25  1.109060  X
